**$ENCRYPTED_LIB
**$INTERFACE

* PSpice Model Editor - Version 16.2.0

* TPS3702CX33
*****************************************************************************
* (C) Copyright 2014 Texas Instruments Incorporated. All rights reserved.                                            
*****************************************************************************
** This model is designed as an aid for customers of Texas Instruments.
** TI and its licensors and suppliers make no warranties, either expressed
** or implied, with respect to this model, including the warranties of 
** merchantability or fitness for a particular purpose.  The model is
** provided solely on an "as is" basis.  The entire risk as to its quality
** and performance is with the customer
*****************************************************************************
*
* This model is subject to change without notice. Texas Instruments
* Incorporated is not responsible for updating this model.
*
*****************************************************************************
*
** Released by: WEBENCH Design Center, Texas Instruments Inc.
* Part: TPS3702CX33
* Date: 25NOV2014
* Model Type: TRANSIENT
* Simulator: PSPICE
* Simulator Version: 16.2.0.p001
* EVM Order Number:
* EVM Users Guide: 
* Datasheet: SBVS251 –SEPTEMBER 2014
*
* Model Version: Final 1.00
*
*****************************************************************************
*
* Updates:
*
* Final 1.00
* Release to Web.
*
*****************************************************************************
.SUBCKT TPS3702CX33_TRANS OUTA_N OUTB_N GND SET VDD SENSE 
$CDNENCSTART
eee8c5c7a2bc4b01f045f303678664e7916da0bae22e8cb0bba041dd67c69ce448ea70148a9ac1670c8926c1ac5057c8ccfcd77bf87ca9dcf83f3d2d14c54187
5ff44a992c4e2ee3dec80522503aa47569e60dc41cf889164492d738030ed63ba9cf6d13f2a0d491acbf1bee8c5bab861933952b4dcad44cddbcbfc1bd38a8ed
7353264ebf8b05513267e49cc155bb17aad0cae5ebf3019a1e2416694de0ebf9a9e42c5a9ef595f6687a96ddeca1a7ab667f3bd3b3e7585d17cd15226bcd124b
cce5a49306e6a353706b807646b80371373e331e5ef0357599aa8a2eeca7c72cf79ed346fe02bf5d1e2416694de0ebf9a9e42c5a9ef595f6f1136e14c2cf9525
e866d6b87a6f86869f50c449b546348cbd36eecf8fcf6f1a5de9a82bb288425a2bdc2471723c531bf8175ec95b8e18f45c4e2e8d34ec25c6c4610e9b40e3f541
ca08815ad2bab6ec3a93bfe09ffa4639fd55e2b462429fa127b93449aa152f5fe6ff318db1b5b9d41b7301f7d6f59ed2d0d93938bdce6793855bb39697ebeee7
3979314adf9cba97a665802feb180241507b98086970482ef855552d4d2fac18e3a4712dc315e201a3e968f7ee7ac6f8a802cb708e5107ac37579d6388b0110b
e2a940f3b8cefa37f8175ec95b8e18f45c4e2e8d34ec25c658eb60e3cd33b57486afa8ca87bccaf214840acd7fa50e72d6ec9c6504d531d64dea9f59cc338218
e4ee973e3b62fb4f706b807646b8037104e5b6f8b9da9e6910337642ed1a1bae1669cd0e57b0723ff8175ec95b8e18f45c4e2e8d34ec25c6c4610e9b40e3f541
e866d6b87a6f86862716e67bb37c7392bd36eecf8fcf6f1adbf163420e6b4324f182b98fc749cfc2e99181ede79aa30a5a0369f24310ee4b7ccc0443c629ad57
9cd405235e588ce7706b807646b80371799c4e5960f386530bb455ebf3c87820194e717a2a76505f0ebdc67ba03e911857e2c5aa80851370f83f3d2d14c54187
6aeec77f2164dd0f957673035b26e32b1b7d36b6562c362b933a2e62036f7b6df855552d4d2fac18e3a4712dc315e201a3e968f7ee7ac6f89b91eeff773cf2f6
574f879f1d53d6140dfb5ee43f9ea2bfa0725215be4e4ab00a519e4b43dcbc4d41a7bbb76486ac873c858dbd7e6e5120d2bbd7e847d638e106ca5c9d845745cf
a5257eba54077ab5021166ac3753b7b82188b5b152a17daffb45f6b7c79945ac43c4611f9ebed275d41eb4901ddacccb8f21441c7f13accfd023207fa14f414c
4b6085f2012636676f3085441f0c7a2acf75c6e02537c9f8e13af53410b6d575a1f3e0e72be43f6806d124ba6464911bc78db27b241d0ad279be90a1d797a608
43c9c900ece80942706b807646b8037169afaa39c8f2e8f199aa8a2eeca7c72cf79ed346fe02bf5d1e2416694de0ebf9a9e42c5a9ef595f6f1136e14c2cf9525
3bdfb3bcf8540f574d942746aefdf24aa706c5a2bfaa87f453c7e91f77a34248cdd6c3d82d863cfa1e2416694de0ebf9a9e42c5a9ef595f6f1136e14c2cf9525
e080b6f7611af9f11b335ff666912215c74b0fd3c94ea54096463744e63041ff93f0978bcaae26c25e907deffd12c5ffdd06c2baef735caed656dab8877def08
998fd920f4f159aa15dda4ec81e72d742188b5b152a17daffb45f6b7c79945ac43c4611f9ebed275d41eb4901ddacccb8f21441c7f13accfd023207fa14f414c
b052355e65d40bdaf459f3357b42db9ee3562a832b72a24e19f5318fa4f3266da2a61fec93ac5d3501b28157c30fe7516da46cf5674535889d6bedf9d0034ac8
0abb8c42c110d7c54597b28a3abd9880aee5fd48f964c83b65269f3484ca6a61c458c33b8d8766a9bc355256cffbec30c1021f83af22fc6bf2d5e5299905ab7b
a68ba69006c80e09157dcbb6421b12566d88fc45062bc0f9cdbcc4ddc0875386d845f72d0893d244a034e0c51c1dd8cb9fe4dd4fce8f7f0e527d18b408453e22
4b6085f2012636676f3085441f0c7a2acf75c6e02537c9f8e13af53410b6d575a1f3e0e72be43f6806d124ba6464911bc78db27b241d0ad279be90a1d797a608
d19f933f5794091d706b807646b803712b5455f6492aa301f55ca25bcabcbb94f8175ec95b8e18f45c4e2e8d34ec25c658eb60e3cd33b5746cc46d901d152520
9c3e801b31a04ffe16133fa516cec5aafec9317a14b10242fcc384cfe594d434add6c49a362e71550de7d1c50471b5f18c980e460c4bd2667ec09cef15c57fb0
1933952b4dcad44c74c7e4af17ab9ceb4a74c5bc3d26245fb986f6b7cf4eda2e3adac16f826d41a0cc18cf24a8f496ce69369a46d1d65ce1cf2df6f17d2374ca
8767f397bff4c3a731bbfa71d5efb6fe825b843a3aa9ddcdf855552d4d2fac18e3a4712dc315e201a3e968f7ee7ac6f8a802cb708e5107ac37579d6388b0110b
afcb122e74526629706b807646b8037108433fc2f2be0971fffa4711a8baa8213f4d858e32868c3d478a87bc5b8e6cf92188b5b152a17daf36fa120972e252d1
849b17171896df02706b807646b803718cc3fddebe837dfeffc077599337e073478a87bc5b8e6cf92188b5b152a17daffb45f6b7c79945acce93b02bb16ba8f9
751e3a01143b2d00706b807646b803718cc3fddebe837dfe7fb227b91981e7e288e63ad41f0070e1b0320154828380202188b5b152a17daf36fa120972e252d1
6e7925580736af367a36308e73798835d81ea2c56bca0e4b7e842e71772e129af671283367913413f855552d4d2fac18e3a4712dc315e20132d2901a6dd92060
3fa91403e96a905a706b807646b80371fffa4711a8baa8210e97888b735c21d721a093a5900e3890b0320154828380202188b5b152a17daf36fa120972e252d1
0c2bc5374d06da6c706b807646b803718cc3fddebe837dfe7fb227b91981e7e22fc94078de093acdc9959d59403cbd358dcea2cdd2d3d5ccd573267e41263c5c
dd06c2baef735cae2b1410deca799d73f8175ec95b8e18f45c4e2e8d34ec25c658eb60e3cd33b57486afa8ca87bccaf214840acd7fa50e7250d19005905ad1eb
4b6085f2012636676f3085441f0c7a2acf75c6e02537c9f8e13af53410b6d575a1f3e0e72be43f6806d124ba6464911bc78db27b241d0ad279be90a1d797a608
a1d3ab48007e4114706b807646b8037108433fc2f2be0971fffa4711a8baa821f283651c3ecca3bb478a87bc5b8e6cf92188b5b152a17daf36fa120972e252d1
b90e0c5fe970b387a60fd3951de4fe940afa9138b43dc00021c22d119a57753e62d766f77596a54bf8175ec95b8e18f45c4e2e8d34ec25c6c4610e9b40e3f541
cfa1abb0abebaedf706b807646b8037172e969bd08ae78f9c9b4dfdbcc44c1242603e4c350d67a4075963efd3ee34e16b032015482838020199902ef25e0ffab
d24b51ea77d68888cf75c6e02537c9f8e13af53410b6d575a1f3e0e72be43f6806d124ba6464911bc78db27b241d0ad2d117c9fbdfa13ec9cf60e4e14b5b827d
4b6085f2012636676f3085441f0c7a2acf75c6e02537c9f8e13af53410b6d575a1f3e0e72be43f6806d124ba6464911bc78db27b241d0ad279be90a1d797a608
3e761c6835cdd8d5706b807646b8037172e969bd08ae78f9cdedf7ea411325711de333fbd2e0f35dcdeb285d9c46dda43fb12276a2f73d0df78efdc2b30f1d96
6f4e565be44828cf706b807646b80371439d9370690464e125e8404501d84b4124632ba73f02e78f493add1c9ab5e27588b96b7c831faa4af2d5e5299905ab7b
a68ba69006c80e09157dcbb6421b12566d88fc45062bc0f9cdbcc4ddc0875386d845f72d0893d244a034e0c51c1dd8cb9fe4dd4fce8f7f0e527d18b408453e22
4b6085f2012636676f3085441f0c7a2acf75c6e02537c9f8e13af53410b6d575a1f3e0e72be43f6806d124ba6464911bc78db27b241d0ad279be90a1d797a608
09a7c1f8b05a8ac1706b807646b803715ba4174df7002d5809f25939985c25d01de333fbd2e0f35dcdeb285d9c46dda43fb12276a2f73d0df78efdc2b30f1d96
04307dd33841f890dec80522503aa47569e60dc41cf889164492d738030ed63bb1b292067b4b8f215b5107155d1021664fc165b19fe1ca19d32f816baede51ad
a5257eba54077ab5021166ac3753b7b82188b5b152a17daffb45f6b7c79945ac43c4611f9ebed275d41eb4901ddacccb8f21441c7f13accfd023207fa14f414c
4b6085f2012636676f3085441f0c7a2acf75c6e02537c9f8e13af53410b6d575a1f3e0e72be43f6806d124ba6464911bc78db27b241d0ad279be90a1d797a608
fb1973f283b31bee84ae83d57dff2f35d2c3e195338081f25417d5f965c78c46f6b416f84d54d658844da759261db986cdeb285d9c46dda4c8b5dfb3d872a7ca
48a94d11d238250f323c673f50964f291849e5b5c9daec4f33d0a8592120fdd5a2a61fec93ac5d3501b28157c30fe751d663c0be9f58d9009d6bedf9d0034ac8
0dea85bdd2f617054d942746aefdf24a14a0033347b9dad753c7e91f77a34248cdd6c3d82d863cfa1e2416694de0ebf9a9e42c5a9ef595f6f1136e14c2cf9525
6c0f1669fc9a138e9f50c449b546348c551beaa07b56d0a25de9a82bb288425a2bdc2471723c531bf8175ec95b8e18f45c4e2e8d34ec25c6c4610e9b40e3f541
ca08815ad2bab6ec610a4c8f6b39fc18fd55e2b462429fa127b93449aa152f5f84bb1eb678ffa5f41b7301f7d6f59ed2d0d93938bdce6793806528456a4a2834
3979314adf9cba976fe22690713fef8b507b98086970482ef855552d4d2fac18e3a4712dc315e201a3e968f7ee7ac6f8a802cb708e5107ac37579d6388b0110b
e2a940f3b8cefa37f8175ec95b8e18f45c4e2e8d34ec25c658eb60e3cd33b57486afa8ca87bccaf214840acd7fa50e72d6ec9c6504d531d64dea9f59cc338218
bcadbcb8408af392706b807646b8037144357299a1fd2104d076f74fb11d61501669cd0e57b0723ff8175ec95b8e18f45c4e2e8d34ec25c6c4610e9b40e3f541
6c0f1669fc9a138e2716e67bb37c7392551beaa07b56d0a2dbf163420e6b4324f182b98fc749cfc2e99181ede79aa30a5a0369f24310ee4b7ccc0443c629ad57
9ba292d0a12fe05b706b807646b8037156e55f42f0c1a6110c592592a86cbf96ba05ad331c19d8d60ebdc67ba03e911857e2c5aa80851370f83f3d2d14c54187
ddf70eae3b592905fa8735d57ddb3752913ec0209d0a0cca3f8644fd7d370454042f0c0c78bb0deb4a74c5bc3d26245fb986f6b7cf4eda2e9cad0c7070992c9d
e0bee0f3fadd6724a60fd3951de4fe9447a8e06eceddd9be21c22d119a57753e62d766f77596a54bf8175ec95b8e18f45c4e2e8d34ec25c6c4610e9b40e3f541
e6aabc26048d8f3f84ae83d57dff2f35739576e8c459897baabaf61a56e056faf6b416f84d54d658844da759261db986cdeb285d9c46dda4c8b5dfb3d872a7ca
b3598f0637b1f897706b807646b80371cf23cf3e501bd5ca5238f5c6f603751ce01a4d20fe4f8d75b0320154828380202188b5b152a17daf36fa120972e252d1
c2bd63b0ac96d30e706b807646b803718a098a47716a9d1e0856ebde734190a0d9bbf49c2d63325c62d766f77596a54bf8175ec95b8e18f4ec4f3c44c848bf61
e911de94c5169114706b807646b803718a098a47716a9d1e7dd9b9c20dd0325d1e2748b1e46cbcef62d766f77596a54bf8175ec95b8e18f4ec4f3c44c848bf61
5ce56fbac3efb003706b807646b80371cf23cf3e501bd5ca41ac0d631476370e478a87bc5b8e6cf92188b5b152a17daffb45f6b7c79945acce93b02bb16ba8f9
f960a5d8cb40d142ed65f05ae081dfdadd71575317ab6e764045a40699189093f671283367913413f855552d4d2fac18e3a4712dc315e20132d2901a6dd92060
f68dde72917c440e706b807646b803719c75888696c9141b6050d539560559b2e21bf61ffec0561bb0320154828380202188b5b152a17daf36fa120972e252d1
e66986ac8efd7292706b807646b80371cf23cf3e501bd5ca5238f5c6f603751c17aa09851ba99f6a7ba326f702886d258dcea2cdd2d3d5ccd573267e41263c5c
dd06c2baef735cae2b1410deca799d73f8175ec95b8e18f45c4e2e8d34ec25c658eb60e3cd33b57486afa8ca87bccaf214840acd7fa50e7250d19005905ad1eb
4b6085f2012636676f3085441f0c7a2acf75c6e02537c9f8e13af53410b6d575a1f3e0e72be43f6806d124ba6464911bc78db27b241d0ad279be90a1d797a608
1f59022967e7ca7b1b335ff66691221581d1d9c3d32167a7be7487f31dacbe75d2bbd7e847d638e1e776e9b255bda08cbfd81d659a09e4b30c138f656e983247
31bbfa71d5efb6fe102372497787b35cf8175ec95b8e18f45c4e2e8d34ec25c658eb60e3cd33b57486afa8ca87bccaf214840acd7fa50e7250d19005905ad1eb
5a7c297026c9864d3ffe42bd8ca53c12082143af411a12e7b9ca20040a2b4e4be862178d47e6979ed8e95d772999222d6d88fc45062bc0f9bc2a5136882407ed
ec0cfc56c4e2b4340eb7d7b1554d03ef6f96622de8905c6fc7794c0749b9c88673ae483510d078147ec50cf6be1bc8faa929d61b6c28ffb333e6629f42ebb717
1d3dad0411796966f6c57157062f5a991e2416694de0ebf9a9e42c5a9ef595f6687a96ddeca1a7ab667f3bd3b3e7585d3d9da221a41465f4bccc189b79fd0d56
3d16c78aa10ca12f6654753a9790d9d68348c3318b8efd17869ed8afa0304447bc83caf0334d460197ace73e3cb9c5bcd5c77b2c540ff2dcb518f8d72ac1c97d
69118533df4a5bd3f8175ec95b8e18f45c4e2e8d34ec25c658eb60e3cd33b57486afa8ca87bccaf214840acd7fa50e72d6ec9c6504d531d64dea9f59cc338218
2781a489511dda48706b807646b80371527dbd0674957f2882c11874a38e4498bd562188f04cac482254ae57d4263ab72b3adeaa6c68cb8f5e939ac0e0a29a49
08434bcf97f098cf706b807646b803715fa64cffae32388fd1cd0c1dbd9e1ab7e01c7b7223b83f350dd8c821ec352012d2bbd7e847d638e106ca5c9d845745cf
a5257eba54077ab5021166ac3753b7b82188b5b152a17daffb45f6b7c79945ac43c4611f9ebed275d41eb4901ddacccb8f21441c7f13accfd023207fa14f414c
4b6085f2012636676f3085441f0c7a2acf75c6e02537c9f8e13af53410b6d575a1f3e0e72be43f6806d124ba6464911bc78db27b241d0ad279be90a1d797a608
7338867859433855706b807646b80371527dbd0674957f280ea2963e83f3e94beffd9e1d6f72fb79ddcc413df5690d36d13d15aff3357ee4e19eb2812c55ca5c
88b96b7c831faa4a41097083f6b3a2094a74c5bc3d26245fb986f6b7cf4eda2e3adac16f826d41a0cc18cf24a8f496ce69369a46d1d65ce1cf2df6f17d2374ca
bbf0a766f49a242c2637e9cac2aa5cea2cecad1ebf804c4bf467148f06ca8e43cdeb285d9c46dda43fb12276a2f73d0d9a896fd7232d98aba8ddc55f15d4adb9
1bfb7d494b0f2bb8d0e6c1d1a69796508fdb42690e9f69738167b87b22d087f1b7a74909c05eea56cf75c6e02537c9f8e13af53410b6d57580e29cd4eb2ad5c0
6138a2b95846af1e706b807646b80371274396f9d9051d4622246f1f7159602dd1a98fac621b0ffb6ccb9707c1c89e435ba87081333cc3eed38aff4e12555a5d
239e32968cce86aa706b807646b8037180f624450f9d564cc1de86532cee26ccdf799ed67b007f09293ce8be1712681123b782b3d6a37df1b88ea0f5ed47560b
795ae4a51f9fb625706b807646b803711f25988e60cb0eda228388898714832d584c9072f8c91a7a710f626c2faf14a6cdeb285d9c46dda4c8b5dfb3d872a7ca
1bfb7d494b0f2bb85b72bd589cd0b3b6687c926c0a8d9e04dab26b99989b742bbbc55f774270b8c9f8175ec95b8e18f45c4e2e8d34ec25c6c4610e9b40e3f541
a8533fb3c6c3ace9706b807646b8037180f624450f9d564c80b7becd18e62365d8019b66890d884f00d3e0b087c73744f855552d4d2fac18a237439ea8c94006
4f7524a30799be96706b807646b80371527dbd0674957f280ea2963e83f3e94ba84e3f5eb9ff9cb32c6ae38325f3cd1495d7fcca0b5012cc7fd07c4e1be66d1d
600062a8f6bfa763b971bd94e9180acaa2b4692623698f1382a4abca7382043f4a74c5bc3d26245fb986f6b7cf4eda2e3adac16f826d41a0caf6578f97e82463
$CDNENCFINISH
.ends TPS3702CX33_TRANS
*$
************************
.subckt TPS3702CX33_HEIRATTCHY_S2 1 2 3 4  
$CDNENCSTART
eee8c5c7a2bc4b01f045f303678664e7916da0bae22e8cb0bba041dd67c69ce448ea70148a9ac1670c8926c1ac5057c8ccfcd77bf87ca9dcf83f3d2d14c54187
c21144fd15b2c61331820e631d1d1d7423f284e2e346bfb82188b5b152a17daffb45f6b7c79945ac43c4611f9ebed275d41eb4901ddacccbc50e21529e065e73
e07b7a6acd4bf43c6f31076d2b37e96baa35006d782c6ce9f855552d4d2fac18e3a4712dc315e201a3e968f7ee7ac6f8a802cb708e5107ac37579d6388b0110b
1e7e75f62a07f7b1bbcb463bf6330e44eff574bcdcb677aa0ffb76e2ddf4497b3ab00c41ae0177274b7c56a314520bab88306aa988596367816cd8d8639805dd
$CDNENCFINISH
.ends TPS3702CX33_HEIRATTCHY_S2
*$
.subckt TPS3702CX33_HEIRATTCHY_S1 1 2 3 4  
$CDNENCSTART
eee8c5c7a2bc4b01f045f303678664e7916da0bae22e8cb0bba041dd67c69ce448ea70148a9ac1670c8926c1ac5057c8ccfcd77bf87ca9dcf83f3d2d14c54187
44f117741689d59131820e631d1d1d749e35700c7913e9392188b5b152a17daffb45f6b7c79945ac43c4611f9ebed275d41eb4901ddacccbc50e21529e065e73
3c76beba9b808c126f31076d2b37e96baa35006d782c6ce9f855552d4d2fac18e3a4712dc315e201a3e968f7ee7ac6f8a802cb708e5107ac37579d6388b0110b
1e7e75f62a07f7b1bbcb463bf6330e447b3ba2fd65dbf9050ffb76e2ddf4497b3ab00c41ae0177274b7c56a314520bab88306aa988596367816cd8d8639805dd
$CDNENCFINISH
.ends TPS3702CX33_HEIRATTCHY_S1

*$
.SUBCKT INV_BASIC_GEN A  Y PARAMS: VDD=1 VSS=0 VTHRESH=0.5 
$CDNENCSTART
eee8c5c7a2bc4b01f045f303678664e7916da0bae22e8cb0bba041dd67c69ce448ea70148a9ac1670c8926c1ac5057c8ccfcd77bf87ca9dcf83f3d2d14c54187
f305b7cfa07651615a9037c8c42a602b94aebb18efc1b73c4a0534bc16c6b751d67091752c09698a1541fe9d381cc675040397452ddd0415f83f3d2d14c54187
97a44fd04201403ec4d5e8dbd1cb68c52188b5b152a17daffb45f6b7c79945ac43c4611f9ebed275d41eb4901ddacccb8f21441c7f13accfd023207fa14f414c
bd9831b9881f0b92e8f02e93fcf213a84a74c5bc3d26245fb986f6b7cf4eda2e3adac16f826d41a0cc18cf24a8f496ce69369a46d1d65ce1cf2df6f17d2374ca
02f2959404528fbd9ad2dc2e0af5de0e6d88fc45062bc0f9cdbcc4ddc0875386d845f72d0893d244a034e0c51c1dd8cb9fe4dd4fce8f7f0e527d18b408453e22
$CDNENCFINISH
.ENDS INV_BASIC_GEN

*$
.SUBCKT COMPHYS_BASIC_GEN INP INM HYS OUT PARAMS: VDD=1 VSS=0 VTHRESH=0.5	
$CDNENCSTART
eee8c5c7a2bc4b01f045f303678664e7916da0bae22e8cb0bba041dd67c69ce448ea70148a9ac1670c8926c1ac5057c8ccfcd77bf87ca9dcf83f3d2d14c54187
9132b7121104d4358be44c41ab888f41b6e3a1568843d8672188b5b152a17daffb45f6b7c79945ac43c4611f9ebed275d41eb4901ddacccbc50e21529e065e73
70d49a25931fcad5af5f0f227a33dfc56b574213c15e8d8904d73209bd6cb354e07469d76c73f504727902e71a3e75d8bb77e20fe987edd8d38aff4e12555a5d
d1579de13894cc53749d13634498f34b2814ec203481f38f6485690991963efc688dc2cfc32ec3a9609956094a2f05290f82827fc36822f02fdb594098788838
c985c90e830fff9457e2c5aa80851370cdeb285d9c46dda43fb12276a2f73d0d9a896fd7232d98abbe284b8931e987f5c41d3cea91294c59ca3ece423ff0378f
1fdb31c906bbcd7763285b29082243911e2416694de0ebf9a9e42c5a9ef595f6687a96ddeca1a7ab667f3bd3b3e7585d3d9da221a41465f4bccc189b79fd0d56
13142c038a62aa150aa66cfdd7abddd7f8175ec95b8e18f45c4e2e8d34ec25c658eb60e3cd33b57486afa8ca87bccaf214840acd7fa50e7250d19005905ad1eb
$CDNENCFINISH
.ENDS COMPHYS_BASIC_GEN
*$
.SUBCKT START_POR_LOGIC COMP START POR OUT PARAMS: VDD=1 VSS=0 VTHRESH=0.5 
$CDNENCSTART
eee8c5c7a2bc4b01f045f303678664e7916da0bae22e8cb0bba041dd67c69ce448ea70148a9ac1670c8926c1ac5057c8ccfcd77bf87ca9dcf83f3d2d14c54187
f305b7cfa07651615a9037c8c42a602b94aebb18efc1b73cc68cf5f7b3466d87ecdd99da2ef03f8e7ca80a2ba8175d7e8203c997ea0d2a6c7fd07c4e1be66d1d
ad36e94682163ffbc66978c517b4f3b9635e2a65469171a0127a44804f558fde91e5d4fa4f14df6fe71f71e1875841711e2416694de0ebf9d9b43b4f4c13862d
bd9831b9881f0b92df56b704ad929d21f8175ec95b8e18f45c4e2e8d34ec25c658eb60e3cd33b57486afa8ca87bccaf214840acd7fa50e7250d19005905ad1eb
eaf1733d1ddf36a088790a779e3815ed4a74c5bc3d26245fb986f6b7cf4eda2e3adac16f826d41a0cc18cf24a8f496ce69369a46d1d65ce1cf2df6f17d2374ca
$CDNENCFINISH
.ENDS START_POR_LOGIC 
*$
.subckt d_d1 1 2
$CDNENCSTART
eee8c5c7a2bc4b01f045f303678664e7916da0bae22e8cb0bba041dd67c69ce448ea70148a9ac1670c8926c1ac5057c8ccfcd77bf87ca9dcf83f3d2d14c54187
1580a2664af5c9b71dffb53947c4a050cdeb285d9c46dda43fb12276a2f73d0d9a896fd7232d98abbe284b8931e987f5c41d3cea91294c59ca3ece423ff0378f
f1f80f02d7761af7c5bf171d7bbd173804d36cec99b77dc0a7f03d1e581742ea8b798ad314fde7ffe17341ce06900249f8175ec95b8e18f4ec4f3c44c848bf61
$CDNENCFINISH
.ends d_d1
*$
.SUBCKT COMP_BASIC_GEN INP INM Y PARAMS: VDD=1 VSS=0 VTHRESH=0.5	
$CDNENCSTART
eee8c5c7a2bc4b01f045f303678664e7916da0bae22e8cb0bba041dd67c69ce448ea70148a9ac1670c8926c1ac5057c8ccfcd77bf87ca9dcf83f3d2d14c54187
324d0b28bd3976fec3fa3d1e401a4503c7cd3c6de157579e2a235350161d1bcb644126c9831a96bd1e2416694de0ebf9a9e42c5a9ef595f6f1136e14c2cf9525
31a245cc4f39b9f1af5040d5c61521d091d34273a8fcd1def8175ec95b8e18f45c4e2e8d34ec25c658eb60e3cd33b57486afa8ca87bccaf20ac74946c8b2cab2
3b7f5ebe940d64624170694978eb4cf86d88fc45062bc0f9cdbcc4ddc0875386d845f72d0893d244a034e0c51c1dd8cb9fe4dd4fce8f7f0e527d18b408453e22
b076ff8d957618915b31487805496d831e2416694de0ebf9a9e42c5a9ef595f6687a96ddeca1a7ab667f3bd3b3e7585d3d9da221a41465f4bccc189b79fd0d56
8a4a8bc39b1ecfc584a5dfb3361bd3602188b5b152a17daffb45f6b7c79945ac43c4611f9ebed275d41eb4901ddacccb8f21441c7f13accfd023207fa14f414c
abba8e716313ec2c61a87faaabf14b292188b5b152a17daffb45f6b7c79945ac43c4611f9ebed275d41eb4901ddacccb8f21441c7f13accfd023207fa14f414c
$CDNENCFINISH
.ENDS COMP_BASIC_GEN
*$
.SUBCKT COMP_OV START VDD_UV  COMP OUT PARAMS: VDD=1 VSS=0 VTHRESH=0.5 
$CDNENCSTART
eee8c5c7a2bc4b01f045f303678664e7916da0bae22e8cb0bba041dd67c69ce448ea70148a9ac1670c8926c1ac5057c8ccfcd77bf87ca9dcf83f3d2d14c54187
f305b7cfa07651615a9037c8c42a602b94aebb18efc1b73cc68cf5f7b3466d87fb0e2291cdf6b72c7ca80a2ba8175d7e8203c997ea0d2a6c7fd07c4e1be66d1d
7e21bb79cbca9f8c66bf25a2978cb8b2db050c627e1f3c12d86963e0fb94e71018b06aae07c49ad7b78081e9f1c3f25d6d88fc45062bc0f9bc2a5136882407ed
bd9831b9881f0b92df56b704ad929d21f8175ec95b8e18f45c4e2e8d34ec25c658eb60e3cd33b57486afa8ca87bccaf214840acd7fa50e7250d19005905ad1eb
eaf1733d1ddf36a088790a779e3815ed4a74c5bc3d26245fb986f6b7cf4eda2e3adac16f826d41a0cc18cf24a8f496ce69369a46d1d65ce1cf2df6f17d2374ca
$CDNENCFINISH
.ENDS COMP_OV
*$

.SUBCKT OR2_BASIC_GEN A B Y PARAMS: VDD=1 VSS=0 VTHRESH=0.5 
$CDNENCSTART
eee8c5c7a2bc4b01f045f303678664e7916da0bae22e8cb0bba041dd67c69ce448ea70148a9ac1670c8926c1ac5057c8ccfcd77bf87ca9dcf83f3d2d14c54187
f305b7cfa07651615a9037c8c42a602b94aebb18efc1b73c4a0534bc16c6b751d67091752c09698a1541fe9d381cc67513d1669f9b59f9457fd07c4e1be66d1d
ce312808b0a91175dcf306adebf133c01a6c7500361cb5a45652e10015a645e7e71f71e1875841711e2416694de0ebf9a9e42c5a9ef595f6f1136e14c2cf9525
bd9831b9881f0b92e8f02e93fcf213a84a74c5bc3d26245fb986f6b7cf4eda2e3adac16f826d41a0cc18cf24a8f496ce69369a46d1d65ce1cf2df6f17d2374ca
02f2959404528fbd9ad2dc2e0af5de0e6d88fc45062bc0f9cdbcc4ddc0875386d845f72d0893d244a034e0c51c1dd8cb9fe4dd4fce8f7f0e527d18b408453e22
$CDNENCFINISH
.ENDS OR2_BASIC_GEN
*$
.SUBCKT AND2 A B Y PARAMS: VDD=1 VSS=0 VTHRESH=0.5 
$CDNENCSTART
eee8c5c7a2bc4b01f045f303678664e7916da0bae22e8cb0bba041dd67c69ce448ea70148a9ac1670c8926c1ac5057c8ccfcd77bf87ca9dcf83f3d2d14c54187
f305b7cfa07651615a9037c8c42a602b94aebb18efc1b73c4a0534bc16c6b751d67091752c09698a1541fe9d381cc675621f57e8bf9b586e7fd07c4e1be66d1d
ce312808b0a91175dcf306adebf133c01a6c7500361cb5a45652e10015a645e7e71f71e1875841711e2416694de0ebf9a9e42c5a9ef595f6f1136e14c2cf9525
bd9831b9881f0b92e8f02e93fcf213a84a74c5bc3d26245fb986f6b7cf4eda2e3adac16f826d41a0cc18cf24a8f496ce69369a46d1d65ce1cf2df6f17d2374ca
02f2959404528fbd9ad2dc2e0af5de0e6d88fc45062bc0f9cdbcc4ddc0875386d845f72d0893d244a034e0c51c1dd8cb9fe4dd4fce8f7f0e527d18b408453e22
$CDNENCFINISH
.ENDS AND2
*$
